REMARK  13 active torsions:
REMARK  status: ('A' for Active; 'I' for Inactive)
REMARK    1  A    between atoms: C2_2  and  C36_36 
REMARK    2  A    between atoms: C2_2  and  C37_37 
REMARK    3  A    between atoms: C7_7  and  C12_12 
REMARK    4  A    between atoms: C10_10  and  N46_46 
REMARK    5  A    between atoms: C15_15  and  O18_18 
REMARK    6  A    between atoms: O18_18  and  C19_19 
REMARK    7  A    between atoms: C19_19  and  C20_20 
REMARK    8  A    between atoms: C23_23  and  C26_26 
REMARK    9  A    between atoms: C26_26  and  N27_27 
REMARK   10  A    between atoms: C36_36  and  C41_41 
REMARK   11  A    between atoms: C37_37  and  C38_38 
REMARK   12  A    between atoms: C38_38  and  C39_39 
REMARK   13  A    between atoms: C41_41  and  C42_42 
ROOT
HETATM    1  C1          0      -9.672   7.726   0.577  1.00  0.00     0.191 C 
HETATM    2  C2          0     -11.028   8.224  -0.192  1.00  0.00     0.036 C 
HETATM    3  C3          0     -10.916   9.524  -0.982  1.00  0.00     0.129 C 
HETATM    4  S4          0     -10.233  10.869  -0.138  1.00  0.00     0.190 S 
HETATM    5  C5          0      -8.489  10.669  -0.093  1.00  0.00     0.080 A 
HETATM    6  C6          0      -7.756   9.329  -0.280  1.00  0.00    -0.005 A 
HETATM    7  C7          0      -8.375   7.781  -0.339  1.00  0.00     0.067 C 
HETATM    8  C8          0      -7.821  11.798   0.069  1.00  0.00     0.012 A 
HETATM    9  C9          0      -6.368  11.823   0.112  1.00  0.00     0.018 A 
HETATM   10  C10         0      -5.704  10.717  -0.043  1.00  0.00     0.056 A 
HETATM   11  C11         0      -6.395   9.448  -0.235  1.00  0.00     0.014 A 
HETATM   12  O35         0      -9.320   8.442   1.765  1.00  0.00    -0.233 OA
HETATM   13  O44         0     -10.820  11.051   1.247  1.00  0.00    -0.222 OA
HETATM   14  O45         0     -10.491  12.138  -0.934  1.00  0.00    -0.222 OA
ENDROOT
BRANCH   2  15
HETATM   15  C36         0     -11.474   7.118  -1.255  1.00  0.00     0.003 C 
BRANCH  15  16
HETATM   16  C41         0     -11.736   5.721  -0.533  1.00  0.00     0.000 C 
BRANCH  16  17
HETATM   17  C42         0     -12.512   4.707  -1.384  1.00  0.00     0.000 C 
HETATM   18  C43         0     -13.980   5.159  -1.504  1.00  0.00     0.000 C 
ENDBRANCH  16  17
ENDBRANCH  15  16
ENDBRANCH   2  15
BRANCH   2  19
HETATM   19  C37         0     -12.251   8.334   0.782  1.00  0.00     0.003 C 
BRANCH  19  20
HETATM   20  C38         0     -13.499   8.729  -0.113  1.00  0.00     0.000 C 
BRANCH  20  21
HETATM   21  C39         0     -14.854   8.689   0.629  1.00  0.00     0.000 C 
HETATM   22  C40         0     -14.925   9.781   1.699  1.00  0.00     0.000 C 
ENDBRANCH  20  21
ENDBRANCH  19  20
ENDBRANCH   2  19
BRANCH   7  23
HETATM   23  C12         0      -7.373   6.554  -0.001  1.00  0.00    -0.016 A 
HETATM   24  C17         0      -7.868   5.323  -0.104  1.00  0.00    -0.002 A 
HETATM   25  C16         0      -7.009   4.116   0.037  1.00  0.00     0.024 A 
HETATM   26  C15         0      -5.694   4.250   0.234  1.00  0.00     0.095 A 
HETATM   27  C14         0      -5.131   5.578   0.341  1.00  0.00     0.024 A 
HETATM   28  C13         0      -5.907   6.658   0.239  1.00  0.00    -0.002 A 
BRANCH  26  29
HETATM   29  O18         0      -4.824   3.133   0.334  1.00  0.00    -0.326 OA
BRANCH  29  30
HETATM   30  C19         0      -5.501   1.872   0.213  1.00  0.00     0.175 C 
BRANCH  30  31
HETATM   31  C20         0      -4.480   0.749   0.190  1.00  0.00     0.008 A 
HETATM   32  C25         0      -4.884  -0.519   0.148  1.00  0.00    -0.002 A 
HETATM   33  C24         0      -3.900  -1.609   0.109  1.00  0.00    -0.003 A 
HETATM   34  C23         0      -2.585  -1.351   0.112  1.00  0.00     0.009 A 
HETATM   35  C22         0      -2.152   0.057   0.164  1.00  0.00    -0.003 A 
HETATM   36  C21         0      -3.045   1.048   0.201  1.00  0.00    -0.002 A 
BRANCH  34  37
HETATM   37  C26         0      -1.467  -2.451   0.047  1.00  0.00     0.243 C 
BRANCH  37  38
HETATM   38  N27         0      -1.818  -3.933  -0.039  1.00  0.00     0.003 N 
HETATM   39  C33         0      -0.535  -4.679  -0.133  1.00  0.00     0.253 C 
HETATM   40  C34         0      -0.812  -6.196  -0.290  1.00  0.00     0.283 C 
HETATM   41  N30         0      -2.264  -6.437  -0.194  1.00  0.00     0.143 N 
HETATM   42  C29         0      -2.955  -5.748  -1.303  1.00  0.00     0.283 C 
HETATM   43  C31         0      -2.768  -5.928   1.100  1.00  0.00     0.283 C 
HETATM   44  C28         0      -2.611  -4.240  -1.266  1.00  0.00     0.253 C 
HETATM   45  C32         0      -2.532  -4.399   1.185  1.00  0.00     0.253 C 
ENDBRANCH  37  38
ENDBRANCH  34  37
ENDBRANCH  30  31
ENDBRANCH  29  30
ENDBRANCH  26  29
ENDBRANCH   7  23
BRANCH  10  46
HETATM   46  N46         0      -4.287  10.698   0.043  1.00  0.00    -0.344 N 
HETATM   47  C47         0      -3.558   9.472  -0.069  1.00  0.00     0.126 C 
HETATM   48  C48         0      -3.578  11.922   0.324  1.00  0.00     0.126 C 
ENDBRANCH  10  46
TORSDOF 13
