REMARK  4 active torsions:
REMARK  status: ('A' for Active; 'I' for Inactive)
REMARK    1  A    between atoms: C1_1  and  C3_3 
REMARK    2  A    between atoms: C1_1  and  C4_4 
REMARK    3  A    between atoms: C1_1  and  C2_2 
REMARK    4  A    between atoms: C4_4  and  N7_7 
ROOT
HETATM    1  C1          0       2.588  -3.752   0.446  1.00  0.00     0.084 C 
ENDROOT
BRANCH   1   2
HETATM    2  C3          0       2.561  -5.360   0.446  1.00  0.00    -0.018 A 
HETATM    3  C5          0       1.297  -6.142   0.484  1.00  0.00    -0.002 A 
HETATM    4  C11         0       1.308  -7.475   0.495  1.00  0.00     0.027 A 
HETATM    5  C9          0       2.565  -8.190   0.482  1.00  0.00     0.131 A 
HETATM    6  O12         0       2.579  -9.581   0.488  1.00  0.00    -0.190 OA
HETATM    7  C10         0       3.712  -7.511   0.468  1.00  0.00     0.027 A 
HETATM    8  C6          0       3.690  -6.042   0.456  1.00  0.00    -0.002 A 
ENDBRANCH   1   2
BRANCH   1   9
HETATM    9  C4          0       3.723  -3.124  -0.494  1.00  0.00     0.257 C 
BRANCH   9  10
HETATM   10  N7          0       5.149  -3.465  -0.203  1.00  0.00     0.142 N 
HETATM   11  C15         0       5.725  -4.269  -1.310  1.00  0.00     0.285 C 
HETATM   12  C16         0       5.910  -2.203  -0.193  1.00  0.00     0.285 C 
ENDBRANCH   9  10
ENDBRANCH   1   9
BRANCH   1  13
HETATM   13  C2          0       1.247  -2.919   0.119  1.00  0.00     0.132 C 
HETATM   14  O8          0       1.595  -1.544   0.289  1.00  0.00    -0.226 OA
HETATM   15  C13         0       0.723  -3.011  -1.367  1.00  0.00     0.031 C 
HETATM   16  C17         0      -0.307  -4.109  -1.494  1.00  0.00     0.003 C 
HETATM   17  C19         0      -1.588  -3.589  -0.723  1.00  0.00     0.000 C 
HETATM   18  C18         0      -1.200  -2.681   0.519  1.00  0.00     0.003 C 
HETATM   19  C14         0       0.073  -3.267   1.097  1.00  0.00     0.031 C 
ENDBRANCH   1  13
TORSDOF 4
