REMARK  6 active torsions:
REMARK  status: ('A' for Active; 'I' for Inactive)
REMARK    1  A    between atoms: C1_1  and  C12_10 
REMARK    2  A    between atoms: C1_1  and  C22_20 
REMARK    3  A    between atoms: C4_2  and  C17_15 
REMARK    4  A    between atoms: C8_6  and  C10_8 
REMARK    5  A    between atoms: C25_23  and  O28_26 
REMARK    6  A    between atoms: O28_26  and  C29_27 
ROOT
HETATM    1  C1          0      16.491  -8.328   0.143  1.00  0.00     0.081 C 
ENDROOT
BRANCH   1   2
HETATM    2  C12         0      15.116  -7.563   0.192  1.00  0.00    -0.019 A 
HETATM    3  C11         0      13.913  -8.361  -0.191  1.00  0.00    -0.006 A 
HETATM    4  C10         0      12.685  -7.838  -0.140  1.00  0.00     0.007 A 
HETATM    5  C15         0      12.516  -6.462   0.268  1.00  0.00    -0.001 A 
HETATM    6  C14         0      13.565  -5.732   0.616  1.00  0.00     0.011 A 
HETATM    7  C13         0      14.920  -6.284   0.598  1.00  0.00     0.053 A 
HETATM    8 CL21         0      16.171  -5.239   1.167  1.00  0.00    -0.083 Cl
BRANCH   4   9
HETATM    9  C8          0      11.425  -8.632  -0.462  1.00  0.00     0.171 C 
HETATM   10  O9          0      10.312  -7.910   0.113  1.00  0.00    -0.347 OA
HETATM   11  C4          0       9.048  -8.537  -0.176  1.00  0.00     0.181 C 
HETATM   12  C5          0       9.016  -9.966   0.395  1.00  0.00     0.214 C 
HETATM   13  O19         0       7.756 -10.572   0.100  1.00  0.00    -0.218 OA
HETATM   14  C6          0      10.145 -10.773  -0.249  1.00  0.00     0.218 C 
HETATM   15  O16         0      10.140 -12.106   0.264  1.00  0.00    -0.218 OA
HETATM   16  C7          0      11.477 -10.090   0.086  1.00  0.00     0.216 C 
HETATM   17  O20         0      12.544 -10.835  -0.508  1.00  0.00    -0.218 OA
BRANCH  11  18
HETATM   18  C17         0       7.919  -7.714   0.469  1.00  0.00     0.214 C 
HETATM   19  O18         0       7.941  -6.385  -0.054  1.00  0.00    -0.218 OA
ENDBRANCH  11  18
ENDBRANCH   4   9
ENDBRANCH   1   2
BRANCH   1  20
HETATM   20  C22         0      17.867  -7.630  -0.026  1.00  0.00    -0.030 A 
HETATM   21  C23         0      18.945  -8.251   0.459  1.00  0.00    -0.003 A 
HETATM   22  C24         0      20.282  -7.649   0.338  1.00  0.00     0.024 A 
HETATM   23  C25         0      20.432  -6.471  -0.268  1.00  0.00     0.094 A 
HETATM   24  C26         0      19.259  -5.795  -0.826  1.00  0.00     0.024 A 
HETATM   25  C27         0      18.048  -6.343  -0.721  1.00  0.00    -0.003 A 
BRANCH  23  26
HETATM   26  O28         0      21.700  -5.860  -0.384  1.00  0.00    -0.331 OA
BRANCH  26  27
HETATM   27  C29         0      22.741  -6.650   0.212  1.00  0.00     0.149 C 
HETATM   28  C30         0      24.086  -5.906   0.074  1.00  0.00     0.035 C 
ENDBRANCH  26  27
ENDBRANCH  23  26
ENDBRANCH   1  20
TORSDOF 6
